8qtk_ligand_selection
  PyMOL2.5          3D                             0

 36 40  0  0  0  0  0  0  0  0999 V2000
   22.7070   15.5640   35.5260 N   0  0  0  0  0  0  0  0  0  0  0  0
   24.3630   17.5280   30.3100 C   0  0  0  0  0  0  0  0  0  0  0  0
   20.8200   21.1900   35.2100 O   0  0  0  0  0  0  0  0  0  0  0  0
   23.2560   17.4360   31.3550 C   0  0  0  0  0  0  0  0  0  0  0  0
   24.3200   16.5630   36.5810 N   0  0  0  0  0  0  0  0  0  0  0  0
   23.4840   18.2050   32.6790 C   0  0  0  0  0  0  0  0  0  0  0  0
   24.1400   17.2200   35.3710 N   0  0  0  0  0  0  0  0  0  0  0  0
   22.6730   17.0610   33.3480 C   0  0  0  0  0  0  0  0  0  0  0  0
   19.2820   21.8140   36.7680 N   0  0  0  0  0  0  0  0  0  0  0  0
   23.1460   16.1360   32.1920 C   0  0  0  0  0  0  0  0  0  0  0  0
   22.0590   22.7290   39.9990 N   0  0  0  0  0  0  0  0  0  0  0  0
   23.1630   16.6190   34.7250 C   0  0  0  0  0  0  0  0  0  0  0  0
   20.9430   23.2030   40.6000 N   0  0  0  0  0  0  0  0  0  0  0  0
   23.4550   15.5890   36.6400 C   0  0  0  0  0  0  0  0  0  0  0  0
   21.6390   14.6060   35.2440 C   0  0  0  0  0  0  0  0  0  0  0  0
   21.1880   17.3760   33.5350 C   0  0  0  0  0  0  0  0  0  0  0  0
   20.7910   18.3460   34.4520 C   0  0  0  0  0  0  0  0  0  0  0  0
   19.4440   18.6470   34.6360 C   0  0  0  0  0  0  0  0  0  0  0  0
   18.4920   17.9590   33.8910 C   0  0  0  0  0  0  0  0  0  0  0  0
   18.8770   16.9900   32.9790 C   0  0  0  0  0  0  0  0  0  0  0  0
   20.2180   16.7030   32.8020 C   0  0  0  0  0  0  0  0  0  0  0  0
   19.0130   19.6770   35.6200 C   0  0  0  0  0  0  0  0  0  0  0  0
   19.7940   20.9100   35.8090 C   0  0  0  0  0  0  0  0  0  0  0  0
   18.1320   21.5320   37.4660 C   0  0  0  0  0  0  0  0  0  0  0  0
   17.4340   20.3950   37.2760 C   0  0  0  0  0  0  0  0  0  0  0  0
   17.8820   19.4590   36.3340 C   0  0  0  0  0  0  0  0  0  0  0  0
   16.1900   20.1300   38.0470 C   0  0  0  0  0  0  0  0  0  0  0  0
   20.0070   23.0870   37.0180 C   0  0  0  0  0  0  0  0  0  0  0  0
   20.6340   23.0360   38.3750 C   0  0  0  0  0  0  0  0  0  0  0  0
   21.9090   22.6160   38.6740 C   0  0  0  0  0  0  0  0  0  0  0  0
   20.0890   23.3880   39.6080 C   0  0  0  0  0  0  0  0  0  0  0  0
   23.2380   22.4100   40.7920 C   0  0  0  0  0  0  0  0  0  0  0  0
   19.0980   24.2930   36.8230 C   0  0  0  0  0  0  0  0  0  0  0  0
   16.1480   18.8900   38.5220 F   0  0  0  0  0  0  0  0  0  0  0  0
   16.0410   20.9050   39.0910 F   0  0  0  0  0  0  0  0  0  0  0  0
   15.1170   20.3010   37.2960 F   0  0  0  0  0  0  0  0  0  0  0  0
  1 12  4  0  0  0  0
  1 14  4  0  0  0  0
  1 15  1  0  0  0  0
  2  4  1  0  0  0  0
  3 23  2  0  0  0  0
  4  6  1  0  0  0  0
  4 10  1  0  0  0  0
  5  7  4  0  0  0  0
  5 14  4  0  0  0  0
  6  8  1  0  0  0  0
  7 12  4  0  0  0  0
  8 10  1  0  0  0  0
  8 12  1  0  0  0  0
  8 16  1  0  0  0  0
  9 23  4  0  0  0  0
  9 24  4  0  0  0  0
  9 28  1  0  0  0  0
 11 13  4  0  0  0  0
 11 30  4  0  0  0  0
 11 32  1  0  0  0  0
 13 31  4  0  0  0  0
 16 17  4  0  0  0  0
 16 21  4  0  0  0  0
 17 18  4  0  0  0  0
 18 19  4  0  0  0  0
 18 22  1  0  0  0  0
 19 20  4  0  0  0  0
 20 21  4  0  0  0  0
 22 23  4  0  0  0  0
 22 26  4  0  0  0  0
 24 25  4  0  0  0  0
 25 26  4  0  0  0  0
 25 27  1  0  0  0  0
 27 34  1  0  0  0  0
 27 35  1  0  0  0  0
 27 36  1  0  0  0  0
 28 29  1  0  0  0  0
 28 33  1  0  0  0  0
 29 30  4  0  0  0  0
 29 31  4  0  0  0  0
M  END
$$$$
